Circuit: * C:\Users\syakilaish\Downloads\PTS06_2024_8\Op8_18\nch_pch.asc

Ignoring BSIM parameter XL
Ignoring BSIM parameter XW
Ignoring BSIM parameter HDIF
Ignoring BSIM parameter XL
Ignoring BSIM parameter XW
Ignoring BSIM parameter HDIF
Warning: Pd = 0 is less than W.
Warning: Ps = 0 is less than W.
Warning: Pd = 0 is less than W.
Warning: Ps = 0 is less than W.
.OP point found by inspection.
.step v2=0
.step v2=0.5
.step v2=1
.step v2=1.5
.step v2=2
.step v2=2.5
.step v2=3

Date: Sun Oct 20 21:57:09 2024
Total elapsed time: 0.100 seconds.

tnom = 27
temp = 27
method = trap
totiter = 7030
traniter = 0
tranpoints = 0
accept = 0
rejected = 0
matrix size = 6
fillins = 0
solver = Normal
Matrix Compiler1: 182 bytes object code size  0.0/0.0/[0.0]
Matrix Compiler2: 402 bytes object code size  0.1/0.0/[0.0]

